 6
   5   -1.4947922617    0.0020000000
C     -6.151496232e-01     2.554941187e+00    -4.253781350e-01
O     -2.790613957e-01     2.121576572e+00    -1.448375803e+00
O     -9.566531687e-01     2.985186938e+00     6.008059891e-01
C      1.006934188e+00     5.316905412e+00     1.009522744e+00
O      6.700758980e-01     5.751439531e+00     2.031771081e+00
O      1.349193549e+00     4.885501214e+00    -1.592567283e-02
 6
 161   -1.4947920966    0.0020000000
C     -6.151364105e-01     2.554953221e+00    -4.253806275e-01
O     -2.790672483e-01     2.121569153e+00    -1.448374828e+00
O     -9.566548982e-01     2.985185968e+00     6.008048299e-01
C      1.006921656e+00     5.316893021e+00     1.009524074e+00
O      6.700784664e-01     5.751452396e+00     2.031766345e+00
O      1.349197883e+00     4.885497095e+00    -1.591958918e-02
